FoamFile
{
    format      ascii;
    class       dictionary;
    object      controlDict;
}

application     icoFoam;
startFrom       startTime;
startTime       0;
stopAt          endTime;
endTime         0.5;
deltaT          0.005;
writeControl    timeStep;
writeInterval   20;
writeFormat     ascii;
runTimeModifiable true;
